Circuit: * E:\Documents\LTspiceXVII\PowerTransmitter-Hbr.asc

Limiting rise time of source v2 to 5e-007
Limiting fall time of source v2 to 5e-007
Direct Newton iteration for .op point succeeded.

Date: Sun Sep 22 22:14:42 2019
Total elapsed time: 1.931 seconds.

tnom = 27
temp = 27
method = modified trap
totiter = 307625
traniter = 307615
tranpoints = 90800
accept = 72509
rejected = 18291
matrix size = 56
fillins = 21
solver = Normal
Matrix Compiler1: 5.51 KB object code size  1.0/0.4/[0.3]
Matrix Compiler2: 5.36 KB object code size  0.5/0.5/[0.3]

