Circuit: * E:\Documents\LTspiceXVII\PowerTransmitter.asc

Direct Newton iteration for .op point succeeded.

Date: Sun Sep 22 21:22:30 2019
Total elapsed time: 2.554 seconds.

tnom = 27
temp = 27
method = modified trap
totiter = 516223
traniter = 516208
tranpoints = 130209
accept = 90895
rejected = 39314
matrix size = 45
fillins = 24
solver = Normal
Matrix Compiler1: 5.10 KB object code size  0.7/0.4/[0.2]
Matrix Compiler2: 4.60 KB object code size  0.3/0.5/[0.2]

