Circuit: * E:\Documents\LTspiceXVII\VoltageDoubler.asc

.OP point found by inspection.

Date: Thu Sep 19 12:15:48 2019
Total elapsed time: 0.308 seconds.

tnom = 27
temp = 27
method = modified trap
totiter = 213246
traniter = 213246
tranpoints = 66007
accept = 42483
rejected = 23524
matrix size = 10
fillins = 0
solver = Normal
Matrix Compiler1: off  [0.0]/0.1/0.1
Matrix Compiler2: 652 bytes object code size  0.0/0.1/[0.0]

