Circuit: * E:\Hanming\UPENN\Senior design\spice\ZVSdriver.asc

.OP point found by inspection.

Date: Sun Sep 29 23:27:37 2019
Total elapsed time: 7.096 seconds.

tnom = 27
temp = 27
method = modified trap
totiter = 2580645
traniter = 2580645
tranpoints = 700903
accept = 485640
rejected = 215263
matrix size = 21
fillins = 12
solver = Normal
Matrix Compiler1: 1.88 KB object code size  0.3/0.2/[0.1]
Matrix Compiler2: 1.99 KB object code size  0.1/0.2/[0.1]

